<additional>
   <laneAreaDetector id="W" lane="23_0" pos="0" endPos="-0.5" freq="1" file="demo.det.out"/>
   <laneAreaDetector id="E" lane="43_0" pos="0" endPos="-0.5" freq="1" file="demo.det.out"/>
   <laneAreaDetector id="N" lane="13_0" pos="0" endPos="-0.5" freq="1" file="demo.det.out"/>
   <laneAreaDetector id="S" lane="53_0" pos="0" endPos="-0.5" freq="1" file="demo.det.out"/>
</additional>